Version 4
SHEET 1 880 680
WIRE 272 96 176 96
WIRE 416 96 352 96
WIRE 416 144 416 96
WIRE 176 160 176 96
WIRE 176 304 176 240
WIRE 416 304 416 208
FLAG 176 304 0
FLAG 416 304 0
SYMBOL voltage 176 144 R0
WINDOW 123 24 124 Left 2
WINDOW 39 0 0 Left 0
SYMATTR InstName V1
SYMATTR Value ""
SYMATTR Value2 AC 1
SYMBOL res 368 80 R90
WINDOW 0 0 56 VBottom 2
WINDOW 3 32 56 VTop 2
SYMATTR InstName R1
SYMATTR Value 1k
SYMBOL cap 400 144 R0
SYMATTR InstName C1
SYMATTR Value 100n
TEXT -2 352 Left 2 !.ac dec 100 10 1meg
