Version 4
SHEET 1 880 680
WIRE 176 128 176 64
WIRE 176 256 176 208
FLAG 176 256 0
FLAG 176 64 reference
SYMBOL voltage 176 112 R0
WINDOW 123 0 0 Left 0
WINDOW 39 0 0 Left 0
SYMATTR InstName V1
SYMATTR Value SINE(0 1 1k)
TEXT 142 280 Left 2 !.tran 0 100m 0 100n
