Version 4
SHEET 1 880 680
WIRE 176 64 32 64
WIRE 32 128 32 64
WIRE 176 176 176 144
WIRE 288 176 176 176
WIRE 336 176 288 176
WIRE 288 224 288 176
WIRE 32 288 32 208
WIRE 176 288 176 256
WIRE 288 320 288 288
FLAG 32 288 0
FLAG 176 288 0
FLAG 336 176 OUTPUT
FLAG 288 320 0
SYMBOL res 160 48 R0
SYMATTR InstName R1
SYMATTR Value 10k
SYMBOL res 160 160 R0
SYMATTR InstName R2
SYMATTR Value 20k
SYMBOL voltage 32 112 R0
WINDOW 123 0 0 Left 0
WINDOW 39 0 0 Left 0
SYMATTR InstName V1
SYMATTR Value 10
SYMBOL cap 272 224 R0
SYMATTR InstName C1
SYMATTR Value 10n
TEXT 0 312 Left 2 !.tran 1 startup
